Version 4
SHEET 1 1384 680
WIRE 784 -176 624 -176
WIRE 624 -96 624 -112
WIRE 624 -96 592 -96
WIRE 416 -48 32 -48
WIRE 544 -48 496 -48
WIRE 624 -32 624 -96
WIRE 592 -16 496 -16
WIRE 864 0 656 0
WIRE 880 0 864 0
WIRE 544 16 544 -48
WIRE 592 16 544 16
WIRE 416 64 224 64
WIRE 496 64 496 -16
WIRE 624 96 624 32
WIRE 624 96 592 96
WIRE 864 96 864 0
WIRE 624 128 624 96
WIRE 32 176 32 -48
WIRE 784 192 784 -176
WIRE 784 192 624 192
WIRE 224 208 224 64
WIRE 624 224 624 192
FLAG 224 288 0
FLAG 32 256 0
FLAG 864 176 0
FLAG 624 224 0
FLAG 512 -96 0
FLAG 512 96 0
SYMBOL res 512 -64 R90
WINDOW 0 0 56 VBottom 2
WINDOW 3 32 56 VTop 2
SYMATTR InstName R1
SYMATTR Value 100K
SYMBOL res 512 48 R90
WINDOW 0 0 56 VBottom 2
WINDOW 3 32 56 VTop 2
SYMATTR InstName R2
SYMATTR Value 100K
SYMBOL res 848 80 R0
SYMATTR InstName R3
SYMATTR Value 3K
SYMBOL voltage 32 160 R0
WINDOW 123 24 124 Left 2
WINDOW 39 0 0 Left 0
SYMATTR Value2 AC 2V 0
SYMATTR InstName V1
SYMATTR Value PULSE(-2 2 0 0.5e-5 0.5e-5 0 1e-5)
SYMBOL voltage 224 192 R0
WINDOW 123 0 0 Left 0
WINDOW 39 0 0 Left 0
SYMATTR InstName V2
SYMATTR Value 1
SYMBOL cap 608 128 R0
SYMATTR InstName C1
SYMATTR Value 0.1µF
SYMBOL cap 608 -176 R0
SYMATTR InstName C2
SYMATTR Value 0.1µF
SYMBOL voltage 608 -96 R90
WINDOW 0 -32 56 VBottom 2
WINDOW 3 32 56 VTop 2
WINDOW 123 0 0 Left 0
WINDOW 39 0 0 Left 0
SYMATTR InstName V4
SYMATTR Value 3V
SYMBOL voltage 496 96 R270
WINDOW 0 32 56 VTop 2
WINDOW 3 -32 56 VBottom 2
WINDOW 123 0 0 Left 0
WINDOW 39 0 0 Left 0
SYMATTR InstName V3
SYMATTR Value 3V
SYMBOL OpAmps\\LT1498 624 -64 R0
SYMATTR InstName U1
TEXT 0 312 Left 2 !.tran 0 0.1ms 0 0.1ms
TEXT 872 -16 Left 2 ;Vo
